5zyg_ligand.pdb
 OpenBabel08132516043D

 30 32  0  0  0  0  0  0  0  0999 V2000
  -34.7910    2.5880   -5.4120 C   0  0  0  0  0  0  0  0  0  0  0  0
  -32.7430    2.6740   -7.2900 C   0  0  0  0  0  0  0  0  0  0  0  0
  -33.9340    1.9440   -7.5680 C   0  0  0  0  0  0  0  0  0  0  0  0
  -34.9850    1.8980   -6.6190 C   0  0  0  0  0  0  0  0  0  0  0  0
  -32.5520    3.4250   -6.0640 C   0  0  0  0  0  0  0  0  0  0  0  0
  -30.6070    4.0510   -4.6310 C   0  0  0  0  0  0  0  0  0  0  0  0
  -31.2450    4.1010   -5.8730 C   0  0  0  0  0  0  0  0  0  0  0  0
  -33.5730    3.2800   -5.1030 C   0  0  0  0  0  0  0  0  0  0  0  0
  -29.2220    5.3580   -6.7720 C   0  0  0  0  0  0  0  0  0  0  0  0
  -29.3220    4.6270   -4.4750 C   0  0  0  0  0  0  0  0  0  0  0  0
  -26.5490    7.0680   -5.8420 O   0  0  0  0  0  0  0  0  0  0  0  0
  -26.9820    5.8740   -4.9930 S   0  0  0  0  0  0  0  0  0  0  0  0
  -26.8000    5.8890   -3.5370 O   0  0  0  0  0  0  0  0  0  0  0  0
  -26.2610    4.2110   -5.3260 C   0  0  0  0  0  0  0  0  0  0  0  0
  -26.7740    3.3150   -4.1850 C   0  0  0  0  0  0  0  0  0  0  0  0
  -26.4600    1.9070   -4.3200 O   0  0  0  0  0  0  0  0  0  0  0  0
  -28.6340    5.3130   -5.4830 C   0  0  0  0  0  0  0  0  0  0  0  0
  -30.5110    4.7670   -6.9320 C   0  0  0  0  0  0  0  0  0  0  0  0
  -35.8750    2.4920   -4.3400 C   0  0  0  0  0  0  0  0  0  0  0  0
  -36.8100    1.2500   -4.4480 C   0  0  0  0  0  0  0  0  0  0  0  0
  -35.0800    2.3300   -3.0300 C   0  0  0  0  0  0  0  0  0  0  0  0
  -36.7200    3.7600   -4.4030 C   0  0  0  0  0  0  0  0  0  0  0  0
  -34.1750    1.1890   -8.8790 C   0  0  0  0  0  0  0  0  0  0  0  0
  -34.7900    2.1420   -9.8760 C   0  0  0  0  0  0  0  0  0  0  0  0
  -36.2020    2.4850   -9.4960 C   0  0  0  0  0  0  0  0  0  0  0  0
  -36.4780    3.6890   -8.8130 C   0  0  0  0  0  0  0  0  0  0  0  0
  -37.8180    3.9110   -8.4660 C   0  0  0  0  0  0  0  0  0  0  0  0
  -37.1350    1.5580   -9.7740 N   0  0  0  0  0  0  0  0  0  0  0  0
  -38.4120    1.7920   -9.4530 C   0  0  0  0  0  0  0  0  0  0  0  0
  -38.7980    2.9630   -8.7880 C   0  0  0  0  0  0  0  0  0  0  0  0
  1  8  1  0  0  0  0
  1 19  1  0  0  0  0
  2  5  1  0  0  0  0
  3  2  2  0  0  0  0
  3  4  1  0  0  0  0
  4  1  2  0  0  0  0
  5  7  1  0  0  0  0
  5  8  2  0  0  0  0
  6 10  1  0  0  0  0
  7  6  2  0  0  0  0
  9 17  1  0  0  0  0
 11 12  2  0  0  0  0
 12 13  2  0  0  0  0
 14 12  1  0  0  0  0
 14 15  1  0  0  0  0
 16 15  1  0  0  0  0
 17 12  1  0  0  0  0
 17 10  2  0  0  0  0
 18  9  2  0  0  0  0
 18  7  1  0  0  0  0
 19 21  1  0  0  0  0
 20 19  1  0  0  0  0
 22 19  1  0  0  0  0
 23  3  1  0  0  0  0
 24 25  1  0  0  0  0
 24 23  1  0  0  0  0
 25 26  1  0  0  0  0
 26 27  2  0  0  0  0
 28 25  2  0  0  0  0
 28 29  1  0  0  0  0
 29 30  2  0  0  0  0
 30 27  1  0  0  0  0
M  END
$$$$
